Circuit: * E:\github\stm32f446_devel\basic.asc

Direct Newton iteration failed to find .op point.  (Use ".option noopiter" to skip.)
Starting Gmin stepping
Gmin = 10
Gmin = 1.07374
Gmin = 0.115292
Gmin = 0.0123794
Gmin = 0.00132923
Gmin = 0.000142725
Gmin = 1.5325e-05
Gmin = 1.6455e-06
Gmin = 1.76685e-07
Gmin = 1.89714e-08
Gmin = 2.03704e-09
Gmin = 2.18725e-10
Gmin = 2.34854e-11
Gmin = 2.52173e-12
Gmin = 2.70769e-13
Gmin = 0
Gmin stepping succeeded in finding the operating point.


Date: Fri Mar 20 12:25:57 2020
Total elapsed time: 0.079 seconds.

tnom = 27
temp = 27
method = modified trap
totiter = 3100
traniter = 2706
tranpoints = 1324
accept = 1251
rejected = 73
matrix size = 14
fillins = 1
solver = Normal
Matrix Compiler1: 600 bytes object code size  0.5/0.3/[0.1]
Matrix Compiler2: off  [0.3]/0.6/0.7

