Circuit: * E:\github\stm32f446_devel\Draft1.asc

.OP point found by inspection.

Date: Mon May  4 08:32:24 2020
Total elapsed time: 0.066 seconds.

tnom = 27
temp = 27
method = modified trap
totiter = 5354
traniter = 5354
tranpoints = 2678
accept = 2478
rejected = 200
matrix size = 3
fillins = 0
solver = Normal
Matrix Compiler1: 50 bytes object code size  0.0/0.0/[0.0]
Matrix Compiler2: off  [0.0]/0.0/0.0

