Circuit: * E:\github\stm32f446_devel\apps\ufo_design\opamp_sim\basic.asc

Direct Newton iteration failed to find .op point.  (Use ".option noopiter" to skip.)
Starting Gmin stepping
Gmin = 10
Gmin = 1.07374
Gmin = 0.115292
Gmin = 0.0123794
Gmin = 0.00132923
Gmin = 0.000142725
Gmin = 1.5325e-05
Gmin = 1.6455e-06
Gmin = 1.76685e-07
Gmin = 1.89714e-08
Gmin = 2.03704e-09
Gmin = 2.18725e-10
Gmin = 2.34854e-11
Gmin = 2.52173e-12
Gmin = 2.70769e-13
Gmin = 0
Gmin stepping succeeded in finding the operating point.


Date: Sat Oct 10 10:21:25 2020
Total elapsed time: 0.101 seconds.

tnom = 27
temp = 27
method = modified trap
totiter = 3564
traniter = 3194
tranpoints = 1553
accept = 1376
rejected = 177
matrix size = 14
fillins = 4
solver = Normal
Matrix Compiler1: 716 bytes object code size  0.7/0.5/[0.2]
Matrix Compiler2: off  [0.5]/0.8/0.9

